data_Metadise_cif_o0002 
 
_symmetry_cell_setting triclinic
_symmetry_space_group_name_H-M P 1
_symmetry_Int_Tables_number 1
 
_symmetry_cell_setting 'triclinic' 
_symmetry_space_group_name_H-M 'P 1' 
_symmetry_Int_Tables_number 1
 
_cell_length_a        21.85600
_cell_length_b        21.85600
_cell_length_c        21.85600
_cell_angle_alpha   90.00000
_cell_angle_beta   90.00000
_cell_angle_gamma   90.00000
 
loop_
_symmetry_equiv_pos_as_xyz
  'x,y,z' 
 
loop_
_atom_site_label
_atom_site_type_symbol
_atom_site_fract_x
_atom_site_fract_y
_atom_site_fract_z
CA__C000001 Ca      0.000000000      0.000000000      0.000000000
CA__C000002 Ca      0.000000000      0.125000000      0.125000000
CA__C000003 Ca      0.125000000      0.000000000      0.125000000
CA__C000004 Ca      0.125000000      0.125000000      0.000000000
F___C000005 F       0.062500000      0.062500000      0.062500000
F___C000006 F       0.187500000      0.187500000      0.062500000
F___C000007 F       0.187500000      0.062500000      0.187500000
F___C000008 F       0.062500000      0.062500000      0.187500000
F___C000009 F       0.187500000      0.187500000      0.187500000
F___C000010 F       0.062500000      0.187500000      0.187500000
F___C000011 F       0.187500000      0.062500000      0.062500000
F___C000012 F       0.062500000      0.187500000      0.062500000
CA__C000013 Ca      0.000000000      0.000000000      0.250000000
CA__C000014 Ca      0.000000000      0.125000000      0.375000000
CA__C000015 Ca      0.125000000      0.000000000      0.375000000
CA__C000016 Ca      0.125000000      0.125000000      0.250000000
F___C000017 F       0.062500000      0.062500000      0.312500000
F___C000018 F       0.187500000      0.187500000      0.312500000
F___C000019 F       0.187500000      0.062500000      0.437500000
F___C000020 F       0.062500000      0.062500000      0.437500000
F___C000021 F       0.187500000      0.187500000      0.437500000
F___C000022 F       0.062500000      0.187500000      0.437500000
F___C000023 F       0.187500000      0.062500000      0.312500000
F___C000024 F       0.062500000      0.187500000      0.312500000
CA__C000025 Ca      0.000000000      0.000000000      0.500000000
CA__C000026 Ca      0.000000000      0.125000000      0.625000000
CA__C000027 Ca      0.125000000      0.000000000      0.625000000
CA__C000028 Ca      0.125000000      0.125000000      0.500000000
F___C000029 F       0.062500000      0.062500000      0.562500000
F___C000030 F       0.187500000      0.187500000      0.562500000
F___C000031 F       0.187500000      0.062500000      0.687500000
F___C000032 F       0.062500000      0.062500000      0.687500000
F___C000033 F       0.187500000      0.187500000      0.687500000
F___C000034 F       0.062500000      0.187500000      0.687500000
F___C000035 F       0.187500000      0.062500000      0.562500000
F___C000036 F       0.062500000      0.187500000      0.562500000
CA__C000037 Ca      0.000000000      0.000000000      0.750000000
CA__C000038 Ca      0.000000000      0.125000000      0.875000000
CA__C000039 Ca      0.125000000      0.000000000      0.875000000
CA__C000040 Ca      0.125000000      0.125000000      0.750000000
F___C000041 F       0.062500000      0.062500000      0.812500000
F___C000042 F       0.187500000      0.187500000      0.812500000
F___C000043 F       0.187500000      0.062500000      0.937500000
F___C000044 F       0.062500000      0.062500000      0.937500000
F___C000045 F       0.187500000      0.187500000      0.937500000
F___C000046 F       0.062500000      0.187500000      0.937500000
F___C000047 F       0.187500000      0.062500000      0.812500000
F___C000048 F       0.062500000      0.187500000      0.812500000
CA__C000049 Ca      0.000000000      0.250000000      0.000000000
CA__C000050 Ca      0.000000000      0.375000000      0.125000000
CA__C000051 Ca      0.125000000      0.250000000      0.125000000
CA__C000052 Ca      0.125000000      0.375000000      0.000000000
F___C000053 F       0.062500000      0.312500000      0.062500000
F___C000054 F       0.187500000      0.437500000      0.062500000
F___C000055 F       0.187500000      0.312500000      0.187500000
F___C000056 F       0.062500000      0.312500000      0.187500000
F___C000057 F       0.187500000      0.437500000      0.187500000
F___C000058 F       0.062500000      0.437500000      0.187500000
F___C000059 F       0.187500000      0.312500000      0.062500000
F___C000060 F       0.062500000      0.437500000      0.062500000
CA__C000061 Ca      0.000000000      0.250000000      0.250000000
CA__C000062 Ca      0.000000000      0.375000000      0.375000000
CA__C000063 Ca      0.125000000      0.250000000      0.375000000
CA__C000064 Ca      0.125000000      0.375000000      0.250000000
F___C000065 F       0.062500000      0.312500000      0.312500000
F___C000066 F       0.187500000      0.437500000      0.312500000
F___C000067 F       0.187500000      0.312500000      0.437500000
F___C000068 F       0.062500000      0.312500000      0.437500000
F___C000069 F       0.187500000      0.437500000      0.437500000
F___C000070 F       0.062500000      0.437500000      0.437500000
F___C000071 F       0.187500000      0.312500000      0.312500000
F___C000072 F       0.062500000      0.437500000      0.312500000
CA__C000073 Ca      0.000000000      0.250000000      0.500000000
CA__C000074 Ca      0.000000000      0.375000000      0.625000000
CA__C000075 Ca      0.125000000      0.250000000      0.625000000
CA__C000076 Ca      0.125000000      0.375000000      0.500000000
F___C000077 F       0.062500000      0.312500000      0.562500000
F___C000078 F       0.187500000      0.437500000      0.562500000
F___C000079 F       0.187500000      0.312500000      0.687500000
F___C000080 F       0.062500000      0.312500000      0.687500000
F___C000081 F       0.187500000      0.437500000      0.687500000
F___C000082 F       0.062500000      0.437500000      0.687500000
F___C000083 F       0.187500000      0.312500000      0.562500000
F___C000084 F       0.062500000      0.437500000      0.562500000
CA__C000085 Ca      0.000000000      0.250000000      0.750000000
CA__C000086 Ca      0.000000000      0.375000000      0.875000000
CA__C000087 Ca      0.125000000      0.250000000      0.875000000
CA__C000088 Ca      0.125000000      0.375000000      0.750000000
F___C000089 F       0.062500000      0.312500000      0.812500000
F___C000090 F       0.187500000      0.437500000      0.812500000
F___C000091 F       0.187500000      0.312500000      0.937500000
F___C000092 F       0.062500000      0.312500000      0.937500000
F___C000093 F       0.187500000      0.437500000      0.937500000
F___C000094 F       0.062500000      0.437500000      0.937500000
F___C000095 F       0.187500000      0.312500000      0.812500000
F___C000096 F       0.062500000      0.437500000      0.812500000
CA__C000097 Ca      0.000000000      0.500000000      0.000000000
CA__C000098 Ca      0.000000000      0.625000000      0.125000000
CA__C000099 Ca      0.125000000      0.500000000      0.125000000
CA__C000100 Ca      0.125000000      0.625000000      0.000000000
F___C000101 F       0.062500000      0.562500000      0.062500000
F___C000102 F       0.187500000      0.687500000      0.062500000
F___C000103 F       0.187500000      0.562500000      0.187500000
F___C000104 F       0.062500000      0.562500000      0.187500000
F___C000105 F       0.187500000      0.687500000      0.187500000
F___C000106 F       0.062500000      0.687500000      0.187500000
F___C000107 F       0.187500000      0.562500000      0.062500000
F___C000108 F       0.062500000      0.687500000      0.062500000
CA__C000109 Ca      0.000000000      0.500000000      0.250000000
CA__C000110 Ca      0.000000000      0.625000000      0.375000000
CA__C000111 Ca      0.125000000      0.500000000      0.375000000
CA__C000112 Ca      0.125000000      0.625000000      0.250000000
F___C000113 F       0.062500000      0.562500000      0.312500000
F___C000114 F       0.187500000      0.687500000      0.312500000
F___C000115 F       0.187500000      0.562500000      0.437500000
F___C000116 F       0.062500000      0.562500000      0.437500000
F___C000117 F       0.187500000      0.687500000      0.437500000
F___C000118 F       0.062500000      0.687500000      0.437500000
F___C000119 F       0.187500000      0.562500000      0.312500000
F___C000120 F       0.062500000      0.687500000      0.312500000
CA__C000121 Ca      0.000000000      0.500000000      0.500000000
CA__C000122 Ca      0.000000000      0.625000000      0.625000000
CA__C000123 Ca      0.125000000      0.500000000      0.625000000
CA__C000124 Ca      0.125000000      0.625000000      0.500000000
F___C000125 F       0.062500000      0.562500000      0.562500000
F___C000126 F       0.187500000      0.687500000      0.562500000
F___C000127 F       0.187500000      0.562500000      0.687500000
F___C000128 F       0.062500000      0.562500000      0.687500000
F___C000129 F       0.187500000      0.687500000      0.687500000
F___C000130 F       0.062500000      0.687500000      0.687500000
F___C000131 F       0.187500000      0.562500000      0.562500000
F___C000132 F       0.062500000      0.687500000      0.562500000
CA__C000133 Ca      0.000000000      0.500000000      0.750000000
CA__C000134 Ca      0.000000000      0.625000000      0.875000000
CA__C000135 Ca      0.125000000      0.500000000      0.875000000
CA__C000136 Ca      0.125000000      0.625000000      0.750000000
F___C000137 F       0.062500000      0.562500000      0.812500000
F___C000138 F       0.187500000      0.687500000      0.812500000
F___C000139 F       0.187500000      0.562500000      0.937500000
F___C000140 F       0.062500000      0.562500000      0.937500000
F___C000141 F       0.187500000      0.687500000      0.937500000
F___C000142 F       0.062500000      0.687500000      0.937500000
F___C000143 F       0.187500000      0.562500000      0.812500000
F___C000144 F       0.062500000      0.687500000      0.812500000
CA__C000145 Ca      0.000000000      0.750000000      0.000000000
CA__C000146 Ca      0.000000000      0.875000000      0.125000000
CA__C000147 Ca      0.125000000      0.750000000      0.125000000
CA__C000148 Ca      0.125000000      0.875000000      0.000000000
F___C000149 F       0.062500000      0.812500000      0.062500000
F___C000150 F       0.187500000      0.937500000      0.062500000
F___C000151 F       0.187500000      0.812500000      0.187500000
F___C000152 F       0.062500000      0.812500000      0.187500000
F___C000153 F       0.187500000      0.937500000      0.187500000
F___C000154 F       0.062500000      0.937500000      0.187500000
F___C000155 F       0.187500000      0.812500000      0.062500000
F___C000156 F       0.062500000      0.937500000      0.062500000
CA__C000157 Ca      0.000000000      0.750000000      0.250000000
CA__C000158 Ca      0.000000000      0.875000000      0.375000000
CA__C000159 Ca      0.125000000      0.750000000      0.375000000
CA__C000160 Ca      0.125000000      0.875000000      0.250000000
F___C000161 F       0.062500000      0.812500000      0.312500000
F___C000162 F       0.187500000      0.937500000      0.312500000
F___C000163 F       0.187500000      0.812500000      0.437500000
F___C000164 F       0.062500000      0.812500000      0.437500000
F___C000165 F       0.187500000      0.937500000      0.437500000
F___C000166 F       0.062500000      0.937500000      0.437500000
F___C000167 F       0.187500000      0.812500000      0.312500000
F___C000168 F       0.062500000      0.937500000      0.312500000
CA__C000169 Ca      0.000000000      0.750000000      0.500000000
CA__C000170 Ca      0.000000000      0.875000000      0.625000000
CA__C000171 Ca      0.125000000      0.750000000      0.625000000
CA__C000172 Ca      0.125000000      0.875000000      0.500000000
F___C000173 F       0.062500000      0.812500000      0.562500000
F___C000174 F       0.187500000      0.937500000      0.562500000
F___C000175 F       0.187500000      0.812500000      0.687500000
F___C000176 F       0.062500000      0.812500000      0.687500000
F___C000177 F       0.187500000      0.937500000      0.687500000
F___C000178 F       0.062500000      0.937500000      0.687500000
F___C000179 F       0.187500000      0.812500000      0.562500000
F___C000180 F       0.062500000      0.937500000      0.562500000
CA__C000181 Ca      0.000000000      0.750000000      0.750000000
CA__C000182 Ca      0.000000000      0.875000000      0.875000000
CA__C000183 Ca      0.125000000      0.750000000      0.875000000
CA__C000184 Ca      0.125000000      0.875000000      0.750000000
F___C000185 F       0.062500000      0.812500000      0.812500000
F___C000186 F       0.187500000      0.937500000      0.812500000
F___C000187 F       0.187500000      0.812500000      0.937500000
F___C000188 F       0.062500000      0.812500000      0.937500000
F___C000189 F       0.187500000      0.937500000      0.937500000
F___C000190 F       0.062500000      0.937500000      0.937500000
F___C000191 F       0.187500000      0.812500000      0.812500000
F___C000192 F       0.062500000      0.937500000      0.812500000
CA__C000193 Ca      0.250000000      0.000000000      0.000000000
CA__C000194 Ca      0.250000000      0.125000000      0.125000000
CA__C000195 Ca      0.375000000      0.000000000      0.125000000
CA__C000196 Ca      0.375000000      0.125000000      0.000000000
F___C000197 F       0.312500000      0.062500000      0.062500000
F___C000198 F       0.437500000      0.187500000      0.062500000
F___C000199 F       0.437500000      0.062500000      0.187500000
F___C000200 F       0.312500000      0.062500000      0.187500000
F___C000201 F       0.437500000      0.187500000      0.187500000
F___C000202 F       0.312500000      0.187500000      0.187500000
F___C000203 F       0.437500000      0.062500000      0.062500000
F___C000204 F       0.312500000      0.187500000      0.062500000
CA__C000205 Ca      0.250000000      0.000000000      0.250000000
CA__C000206 Ca      0.250000000      0.125000000      0.375000000
CA__C000207 Ca      0.375000000      0.000000000      0.375000000
CA__C000208 Ca      0.375000000      0.125000000      0.250000000
F___C000209 F       0.312500000      0.062500000      0.312500000
F___C000210 F       0.437500000      0.187500000      0.312500000
F___C000211 F       0.437500000      0.062500000      0.437500000
F___C000212 F       0.312500000      0.062500000      0.437500000
F___C000213 F       0.437500000      0.187500000      0.437500000
F___C000214 F       0.312500000      0.187500000      0.437500000
F___C000215 F       0.437500000      0.062500000      0.312500000
F___C000216 F       0.312500000      0.187500000      0.312500000
CA__C000217 Ca      0.250000000      0.000000000      0.500000000
CA__C000218 Ca      0.250000000      0.125000000      0.625000000
CA__C000219 Ca      0.375000000      0.000000000      0.625000000
CA__C000220 Ca      0.375000000      0.125000000      0.500000000
F___C000221 F       0.312500000      0.062500000      0.562500000
F___C000222 F       0.437500000      0.187500000      0.562500000
F___C000223 F       0.437500000      0.062500000      0.687500000
F___C000224 F       0.312500000      0.062500000      0.687500000
F___C000225 F       0.437500000      0.187500000      0.687500000
F___C000226 F       0.312500000      0.187500000      0.687500000
F___C000227 F       0.437500000      0.062500000      0.562500000
F___C000228 F       0.312500000      0.187500000      0.562500000
CA__C000229 Ca      0.250000000      0.000000000      0.750000000
CA__C000230 Ca      0.250000000      0.125000000      0.875000000
CA__C000231 Ca      0.375000000      0.000000000      0.875000000
CA__C000232 Ca      0.375000000      0.125000000      0.750000000
F___C000233 F       0.312500000      0.062500000      0.812500000
F___C000234 F       0.437500000      0.187500000      0.812500000
F___C000235 F       0.437500000      0.062500000      0.937500000
F___C000236 F       0.312500000      0.062500000      0.937500000
F___C000237 F       0.437500000      0.187500000      0.937500000
F___C000238 F       0.312500000      0.187500000      0.937500000
F___C000239 F       0.437500000      0.062500000      0.812500000
F___C000240 F       0.312500000      0.187500000      0.812500000
CA__C000241 Ca      0.250000000      0.250000000      0.000000000
CA__C000242 Ca      0.250000000      0.375000000      0.125000000
CA__C000243 Ca      0.375000000      0.250000000      0.125000000
CA__C000244 Ca      0.375000000      0.375000000      0.000000000
F___C000245 F       0.312500000      0.312500000      0.062500000
F___C000246 F       0.437500000      0.437500000      0.062500000
F___C000247 F       0.437500000      0.312500000      0.187500000
F___C000248 F       0.312500000      0.312500000      0.187500000
F___C000249 F       0.437500000      0.437500000      0.187500000
F___C000250 F       0.312500000      0.437500000      0.187500000
F___C000251 F       0.437500000      0.312500000      0.062500000
F___C000252 F       0.312500000      0.437500000      0.062500000
CA__C000253 Ca      0.250000000      0.250000000      0.250000000
CA__C000254 Ca      0.250000000      0.375000000      0.375000000
CA__C000255 Ca      0.375000000      0.250000000      0.375000000
CA__C000256 Ca      0.375000000      0.375000000      0.250000000
F___C000257 F       0.312500000      0.312500000      0.312500000
F___C000258 F       0.437500000      0.437500000      0.312500000
F___C000259 F       0.437500000      0.312500000      0.437500000
F___C000260 F       0.312500000      0.312500000      0.437500000
F___C000261 F       0.437500000      0.437500000      0.437500000
F___C000262 F       0.312500000      0.437500000      0.437500000
F___C000263 F       0.437500000      0.312500000      0.312500000
F___C000264 F       0.312500000      0.437500000      0.312500000
CA__C000265 Ca      0.250000000      0.250000000      0.500000000
CA__C000266 Ca      0.250000000      0.375000000      0.625000000
CA__C000267 Ca      0.375000000      0.250000000      0.625000000
CA__C000268 Ca      0.375000000      0.375000000      0.500000000
F___C000269 F       0.312500000      0.312500000      0.562500000
F___C000270 F       0.437500000      0.437500000      0.562500000
F___C000271 F       0.437500000      0.312500000      0.687500000
F___C000272 F       0.312500000      0.312500000      0.687500000
F___C000273 F       0.437500000      0.437500000      0.687500000
F___C000274 F       0.312500000      0.437500000      0.687500000
F___C000275 F       0.437500000      0.312500000      0.562500000
F___C000276 F       0.312500000      0.437500000      0.562500000
CA__C000277 Ca      0.250000000      0.250000000      0.750000000
CA__C000278 Ca      0.250000000      0.375000000      0.875000000
CA__C000279 Ca      0.375000000      0.250000000      0.875000000
CA__C000280 Ca      0.375000000      0.375000000      0.750000000
F___C000281 F       0.312500000      0.312500000      0.812500000
F___C000282 F       0.437500000      0.437500000      0.812500000
F___C000283 F       0.437500000      0.312500000      0.937500000
F___C000284 F       0.312500000      0.312500000      0.937500000
F___C000285 F       0.437500000      0.437500000      0.937500000
F___C000286 F       0.312500000      0.437500000      0.937500000
F___C000287 F       0.437500000      0.312500000      0.812500000
F___C000288 F       0.312500000      0.437500000      0.812500000
CA__C000289 Ca      0.250000000      0.500000000      0.000000000
CA__C000290 Ca      0.250000000      0.625000000      0.125000000
CA__C000291 Ca      0.375000000      0.500000000      0.125000000
CA__C000292 Ca      0.375000000      0.625000000      0.000000000
F___C000293 F       0.312500000      0.562500000      0.062500000
F___C000294 F       0.437500000      0.687500000      0.062500000
F___C000295 F       0.437500000      0.562500000      0.187500000
F___C000296 F       0.312500000      0.562500000      0.187500000
F___C000297 F       0.437500000      0.687500000      0.187500000
F___C000298 F       0.312500000      0.687500000      0.187500000
F___C000299 F       0.437500000      0.562500000      0.062500000
F___C000300 F       0.312500000      0.687500000      0.062500000
CA__C000301 Ca      0.250000000      0.500000000      0.250000000
CA__C000302 Ca      0.250000000      0.625000000      0.375000000
CA__C000303 Ca      0.375000000      0.500000000      0.375000000
CA__C000304 Ca      0.375000000      0.625000000      0.250000000
F___C000305 F       0.312500000      0.562500000      0.312500000
F___C000306 F       0.437500000      0.687500000      0.312500000
F___C000307 F       0.437500000      0.562500000      0.437500000
F___C000308 F       0.312500000      0.562500000      0.437500000
F___C000309 F       0.437500000      0.687500000      0.437500000
F___C000310 F       0.312500000      0.687500000      0.437500000
F___C000311 F       0.437500000      0.562500000      0.312500000
F___C000312 F       0.312500000      0.687500000      0.312500000
CA__C000313 Ca      0.250000000      0.500000000      0.500000000
CA__C000314 Ca      0.250000000      0.625000000      0.625000000
CA__C000315 Ca      0.375000000      0.500000000      0.625000000
CA__C000316 Ca      0.375000000      0.625000000      0.500000000
F___C000317 F       0.312500000      0.562500000      0.562500000
F___C000318 F       0.437500000      0.687500000      0.562500000
F___C000319 F       0.437500000      0.562500000      0.687500000
F___C000320 F       0.312500000      0.562500000      0.687500000
F___C000321 F       0.437500000      0.687500000      0.687500000
F___C000322 F       0.312500000      0.687500000      0.687500000
F___C000323 F       0.437500000      0.562500000      0.562500000
F___C000324 F       0.312500000      0.687500000      0.562500000
CA__C000325 Ca      0.250000000      0.500000000      0.750000000
CA__C000326 Ca      0.250000000      0.625000000      0.875000000
CA__C000327 Ca      0.375000000      0.500000000      0.875000000
CA__C000328 Ca      0.375000000      0.625000000      0.750000000
F___C000329 F       0.312500000      0.562500000      0.812500000
F___C000330 F       0.437500000      0.687500000      0.812500000
F___C000331 F       0.437500000      0.562500000      0.937500000
F___C000332 F       0.312500000      0.562500000      0.937500000
F___C000333 F       0.437500000      0.687500000      0.937500000
F___C000334 F       0.312500000      0.687500000      0.937500000
F___C000335 F       0.437500000      0.562500000      0.812500000
F___C000336 F       0.312500000      0.687500000      0.812500000
CA__C000337 Ca      0.250000000      0.750000000      0.000000000
CA__C000338 Ca      0.250000000      0.875000000      0.125000000
CA__C000339 Ca      0.375000000      0.750000000      0.125000000
CA__C000340 Ca      0.375000000      0.875000000      0.000000000
F___C000341 F       0.312500000      0.812500000      0.062500000
F___C000342 F       0.437500000      0.937500000      0.062500000
F___C000343 F       0.437500000      0.812500000      0.187500000
F___C000344 F       0.312500000      0.812500000      0.187500000
F___C000345 F       0.437500000      0.937500000      0.187500000
F___C000346 F       0.312500000      0.937500000      0.187500000
F___C000347 F       0.437500000      0.812500000      0.062500000
F___C000348 F       0.312500000      0.937500000      0.062500000
CA__C000349 Ca      0.250000000      0.750000000      0.250000000
CA__C000350 Ca      0.250000000      0.875000000      0.375000000
CA__C000351 Ca      0.375000000      0.750000000      0.375000000
CA__C000352 Ca      0.375000000      0.875000000      0.250000000
F___C000353 F       0.312500000      0.812500000      0.312500000
F___C000354 F       0.437500000      0.937500000      0.312500000
F___C000355 F       0.437500000      0.812500000      0.437500000
F___C000356 F       0.312500000      0.812500000      0.437500000
F___C000357 F       0.437500000      0.937500000      0.437500000
F___C000358 F       0.312500000      0.937500000      0.437500000
F___C000359 F       0.437500000      0.812500000      0.312500000
F___C000360 F       0.312500000      0.937500000      0.312500000
CA__C000361 Ca      0.250000000      0.750000000      0.500000000
CA__C000362 Ca      0.250000000      0.875000000      0.625000000
CA__C000363 Ca      0.375000000      0.750000000      0.625000000
CA__C000364 Ca      0.375000000      0.875000000      0.500000000
F___C000365 F       0.312500000      0.812500000      0.562500000
F___C000366 F       0.437500000      0.937500000      0.562500000
F___C000367 F       0.437500000      0.812500000      0.687500000
F___C000368 F       0.312500000      0.812500000      0.687500000
F___C000369 F       0.437500000      0.937500000      0.687500000
F___C000370 F       0.312500000      0.937500000      0.687500000
F___C000371 F       0.437500000      0.812500000      0.562500000
F___C000372 F       0.312500000      0.937500000      0.562500000
CA__C000373 Ca      0.250000000      0.750000000      0.750000000
CA__C000374 Ca      0.250000000      0.875000000      0.875000000
CA__C000375 Ca      0.375000000      0.750000000      0.875000000
CA__C000376 Ca      0.375000000      0.875000000      0.750000000
F___C000377 F       0.312500000      0.812500000      0.812500000
F___C000378 F       0.437500000      0.937500000      0.812500000
F___C000379 F       0.437500000      0.812500000      0.937500000
F___C000380 F       0.312500000      0.812500000      0.937500000
F___C000381 F       0.437500000      0.937500000      0.937500000
F___C000382 F       0.312500000      0.937500000      0.937500000
F___C000383 F       0.437500000      0.812500000      0.812500000
F___C000384 F       0.312500000      0.937500000      0.812500000
CA__C000385 Ca      0.500000000      0.000000000      0.000000000
CA__C000386 Ca      0.500000000      0.125000000      0.125000000
CA__C000387 Ca      0.625000000      0.000000000      0.125000000
CA__C000388 Ca      0.625000000      0.125000000      0.000000000
F___C000389 F       0.562500000      0.062500000      0.062500000
F___C000390 F       0.687500000      0.187500000      0.062500000
F___C000391 F       0.687500000      0.062500000      0.187500000
F___C000392 F       0.562500000      0.062500000      0.187500000
F___C000393 F       0.687500000      0.187500000      0.187500000
F___C000394 F       0.562500000      0.187500000      0.187500000
F___C000395 F       0.687500000      0.062500000      0.062500000
F___C000396 F       0.562500000      0.187500000      0.062500000
CA__C000397 Ca      0.500000000      0.000000000      0.250000000
CA__C000398 Ca      0.500000000      0.125000000      0.375000000
CA__C000399 Ca      0.625000000      0.000000000      0.375000000
CA__C000400 Ca      0.625000000      0.125000000      0.250000000
F___C000401 F       0.562500000      0.062500000      0.312500000
F___C000402 F       0.687500000      0.187500000      0.312500000
F___C000403 F       0.687500000      0.062500000      0.437500000
F___C000404 F       0.562500000      0.062500000      0.437500000
F___C000405 F       0.687500000      0.187500000      0.437500000
F___C000406 F       0.562500000      0.187500000      0.437500000
F___C000407 F       0.687500000      0.062500000      0.312500000
F___C000408 F       0.562500000      0.187500000      0.312500000
CA__C000409 Ca      0.500000000      0.000000000      0.500000000
CA__C000410 Ca      0.500000000      0.125000000      0.625000000
CA__C000411 Ca      0.625000000      0.000000000      0.625000000
CA__C000412 Ca      0.625000000      0.125000000      0.500000000
F___C000413 F       0.562500000      0.062500000      0.562500000
F___C000414 F       0.687500000      0.187500000      0.562500000
F___C000415 F       0.687500000      0.062500000      0.687500000
F___C000416 F       0.562500000      0.062500000      0.687500000
F___C000417 F       0.687500000      0.187500000      0.687500000
F___C000418 F       0.562500000      0.187500000      0.687500000
F___C000419 F       0.687500000      0.062500000      0.562500000
F___C000420 F       0.562500000      0.187500000      0.562500000
CA__C000421 Ca      0.500000000      0.000000000      0.750000000
CA__C000422 Ca      0.500000000      0.125000000      0.875000000
CA__C000423 Ca      0.625000000      0.000000000      0.875000000
CA__C000424 Ca      0.625000000      0.125000000      0.750000000
F___C000425 F       0.562500000      0.062500000      0.812500000
F___C000426 F       0.687500000      0.187500000      0.812500000
F___C000427 F       0.687500000      0.062500000      0.937500000
F___C000428 F       0.562500000      0.062500000      0.937500000
F___C000429 F       0.687500000      0.187500000      0.937500000
F___C000430 F       0.562500000      0.187500000      0.937500000
F___C000431 F       0.687500000      0.062500000      0.812500000
F___C000432 F       0.562500000      0.187500000      0.812500000
CA__C000433 Ca      0.500000000      0.250000000      0.000000000
CA__C000434 Ca      0.500000000      0.375000000      0.125000000
CA__C000435 Ca      0.625000000      0.250000000      0.125000000
CA__C000436 Ca      0.625000000      0.375000000      0.000000000
F___C000437 F       0.562500000      0.312500000      0.062500000
F___C000438 F       0.687500000      0.437500000      0.062500000
F___C000439 F       0.687500000      0.312500000      0.187500000
F___C000440 F       0.562500000      0.312500000      0.187500000
F___C000441 F       0.687500000      0.437500000      0.187500000
F___C000442 F       0.562500000      0.437500000      0.187500000
F___C000443 F       0.687500000      0.312500000      0.062500000
F___C000444 F       0.562500000      0.437500000      0.062500000
CA__C000445 Ca      0.500000000      0.250000000      0.250000000
CA__C000446 Ca      0.500000000      0.375000000      0.375000000
CA__C000447 Ca      0.625000000      0.250000000      0.375000000
CA__C000448 Ca      0.625000000      0.375000000      0.250000000
F___C000449 F       0.562500000      0.312500000      0.312500000
F___C000450 F       0.687500000      0.437500000      0.312500000
F___C000451 F       0.687500000      0.312500000      0.437500000
F___C000452 F       0.562500000      0.312500000      0.437500000
F___C000453 F       0.687500000      0.437500000      0.437500000
F___C000454 F       0.562500000      0.437500000      0.437500000
F___C000455 F       0.687500000      0.312500000      0.312500000
F___C000456 F       0.562500000      0.437500000      0.312500000
CA__C000457 Ca      0.500000000      0.250000000      0.500000000
CA__C000458 Ca      0.500000000      0.375000000      0.625000000
CA__C000459 Ca      0.625000000      0.250000000      0.625000000
CA__C000460 Ca      0.625000000      0.375000000      0.500000000
F___C000461 F       0.562500000      0.312500000      0.562500000
F___C000462 F       0.687500000      0.437500000      0.562500000
F___C000463 F       0.687500000      0.312500000      0.687500000
F___C000464 F       0.562500000      0.312500000      0.687500000
F___C000465 F       0.687500000      0.437500000      0.687500000
F___C000466 F       0.562500000      0.437500000      0.687500000
F___C000467 F       0.687500000      0.312500000      0.562500000
F___C000468 F       0.562500000      0.437500000      0.562500000
CA__C000469 Ca      0.500000000      0.250000000      0.750000000
CA__C000470 Ca      0.500000000      0.375000000      0.875000000
CA__C000471 Ca      0.625000000      0.250000000      0.875000000
CA__C000472 Ca      0.625000000      0.375000000      0.750000000
F___C000473 F       0.562500000      0.312500000      0.812500000
F___C000474 F       0.687500000      0.437500000      0.812500000
F___C000475 F       0.687500000      0.312500000      0.937500000
F___C000476 F       0.562500000      0.312500000      0.937500000
F___C000477 F       0.687500000      0.437500000      0.937500000
F___C000478 F       0.562500000      0.437500000      0.937500000
F___C000479 F       0.687500000      0.312500000      0.812500000
F___C000480 F       0.562500000      0.437500000      0.812500000
CA__C000481 Ca      0.500000000      0.500000000      0.000000000
CA__C000482 Ca      0.500000000      0.625000000      0.125000000
CA__C000483 Ca      0.625000000      0.500000000      0.125000000
CA__C000484 Ca      0.625000000      0.625000000      0.000000000
F___C000485 F       0.562500000      0.562500000      0.062500000
F___C000486 F       0.687500000      0.687500000      0.062500000
F___C000487 F       0.687500000      0.562500000      0.187500000
F___C000488 F       0.562500000      0.562500000      0.187500000
F___C000489 F       0.687500000      0.687500000      0.187500000
F___C000490 F       0.562500000      0.687500000      0.187500000
F___C000491 F       0.687500000      0.562500000      0.062500000
F___C000492 F       0.562500000      0.687500000      0.062500000
CA__C000493 Ca      0.500000000      0.500000000      0.250000000
CA__C000494 Ca      0.500000000      0.625000000      0.375000000
CA__C000495 Ca      0.625000000      0.500000000      0.375000000
CA__C000496 Ca      0.625000000      0.625000000      0.250000000
F___C000497 F       0.562500000      0.562500000      0.312500000
F___C000498 F       0.687500000      0.687500000      0.312500000
F___C000499 F       0.687500000      0.562500000      0.437500000
F___C000500 F       0.562500000      0.562500000      0.437500000
F___C000501 F       0.687500000      0.687500000      0.437500000
F___C000502 F       0.562500000      0.687500000      0.437500000
F___C000503 F       0.687500000      0.562500000      0.312500000
F___C000504 F       0.562500000      0.687500000      0.312500000
CA__C000505 Ca      0.500000000      0.500000000      0.500000000
CA__C000506 Ca      0.500000000      0.625000000      0.625000000
CA__C000507 Ca      0.625000000      0.500000000      0.625000000
CA__C000508 Ca      0.625000000      0.625000000      0.500000000
F___C000509 F       0.562500000      0.562500000      0.562500000
F___C000510 F       0.687500000      0.687500000      0.562500000
F___C000511 F       0.687500000      0.562500000      0.687500000
F___C000512 F       0.562500000      0.562500000      0.687500000
F___C000513 F       0.687500000      0.687500000      0.687500000
F___C000514 F       0.562500000      0.687500000      0.687500000
F___C000515 F       0.687500000      0.562500000      0.562500000
F___C000516 F       0.562500000      0.687500000      0.562500000
CA__C000517 Ca      0.500000000      0.500000000      0.750000000
CA__C000518 Ca      0.500000000      0.625000000      0.875000000
CA__C000519 Ca      0.625000000      0.500000000      0.875000000
CA__C000520 Ca      0.625000000      0.625000000      0.750000000
F___C000521 F       0.562500000      0.562500000      0.812500000
F___C000522 F       0.687500000      0.687500000      0.812500000
F___C000523 F       0.687500000      0.562500000      0.937500000
F___C000524 F       0.562500000      0.562500000      0.937500000
F___C000525 F       0.687500000      0.687500000      0.937500000
F___C000526 F       0.562500000      0.687500000      0.937500000
F___C000527 F       0.687500000      0.562500000      0.812500000
F___C000528 F       0.562500000      0.687500000      0.812500000
CA__C000529 Ca      0.500000000      0.750000000      0.000000000
CA__C000530 Ca      0.500000000      0.875000000      0.125000000
CA__C000531 Ca      0.625000000      0.750000000      0.125000000
CA__C000532 Ca      0.625000000      0.875000000      0.000000000
F___C000533 F       0.562500000      0.812500000      0.062500000
F___C000534 F       0.687500000      0.937500000      0.062500000
F___C000535 F       0.687500000      0.812500000      0.187500000
F___C000536 F       0.562500000      0.812500000      0.187500000
F___C000537 F       0.687500000      0.937500000      0.187500000
F___C000538 F       0.562500000      0.937500000      0.187500000
F___C000539 F       0.687500000      0.812500000      0.062500000
F___C000540 F       0.562500000      0.937500000      0.062500000
CA__C000541 Ca      0.500000000      0.750000000      0.250000000
CA__C000542 Ca      0.500000000      0.875000000      0.375000000
CA__C000543 Ca      0.625000000      0.750000000      0.375000000
CA__C000544 Ca      0.625000000      0.875000000      0.250000000
F___C000545 F       0.562500000      0.812500000      0.312500000
F___C000546 F       0.687500000      0.937500000      0.312500000
F___C000547 F       0.687500000      0.812500000      0.437500000
F___C000548 F       0.562500000      0.812500000      0.437500000
F___C000549 F       0.687500000      0.937500000      0.437500000
F___C000550 F       0.562500000      0.937500000      0.437500000
F___C000551 F       0.687500000      0.812500000      0.312500000
F___C000552 F       0.562500000      0.937500000      0.312500000
CA__C000553 Ca      0.500000000      0.750000000      0.500000000
CA__C000554 Ca      0.500000000      0.875000000      0.625000000
CA__C000555 Ca      0.625000000      0.750000000      0.625000000
CA__C000556 Ca      0.625000000      0.875000000      0.500000000
F___C000557 F       0.562500000      0.812500000      0.562500000
F___C000558 F       0.687500000      0.937500000      0.562500000
F___C000559 F       0.687500000      0.812500000      0.687500000
F___C000560 F       0.562500000      0.812500000      0.687500000
F___C000561 F       0.687500000      0.937500000      0.687500000
F___C000562 F       0.562500000      0.937500000      0.687500000
F___C000563 F       0.687500000      0.812500000      0.562500000
F___C000564 F       0.562500000      0.937500000      0.562500000
CA__C000565 Ca      0.500000000      0.750000000      0.750000000
CA__C000566 Ca      0.500000000      0.875000000      0.875000000
CA__C000567 Ca      0.625000000      0.750000000      0.875000000
CA__C000568 Ca      0.625000000      0.875000000      0.750000000
F___C000569 F       0.562500000      0.812500000      0.812500000
F___C000570 F       0.687500000      0.937500000      0.812500000
F___C000571 F       0.687500000      0.812500000      0.937500000
F___C000572 F       0.562500000      0.812500000      0.937500000
F___C000573 F       0.687500000      0.937500000      0.937500000
F___C000574 F       0.562500000      0.937500000      0.937500000
F___C000575 F       0.687500000      0.812500000      0.812500000
F___C000576 F       0.562500000      0.937500000      0.812500000
CA__C000577 Ca      0.750000000      0.000000000      0.000000000
CA__C000578 Ca      0.750000000      0.125000000      0.125000000
CA__C000579 Ca      0.875000000      0.000000000      0.125000000
CA__C000580 Ca      0.875000000      0.125000000      0.000000000
F___C000581 F       0.812500000      0.062500000      0.062500000
F___C000582 F       0.937500000      0.187500000      0.062500000
F___C000583 F       0.937500000      0.062500000      0.187500000
F___C000584 F       0.812500000      0.062500000      0.187500000
F___C000585 F       0.937500000      0.187500000      0.187500000
F___C000586 F       0.812500000      0.187500000      0.187500000
F___C000587 F       0.937500000      0.062500000      0.062500000
F___C000588 F       0.812500000      0.187500000      0.062500000
CA__C000589 Ca      0.750000000      0.000000000      0.250000000
CA__C000590 Ca      0.750000000      0.125000000      0.375000000
CA__C000591 Ca      0.875000000      0.000000000      0.375000000
CA__C000592 Ca      0.875000000      0.125000000      0.250000000
F___C000593 F       0.812500000      0.062500000      0.312500000
F___C000594 F       0.937500000      0.187500000      0.312500000
F___C000595 F       0.937500000      0.062500000      0.437500000
F___C000596 F       0.812500000      0.062500000      0.437500000
F___C000597 F       0.937500000      0.187500000      0.437500000
F___C000598 F       0.812500000      0.187500000      0.437500000
F___C000599 F       0.937500000      0.062500000      0.312500000
F___C000600 F       0.812500000      0.187500000      0.312500000
CA__C000601 Ca      0.750000000      0.000000000      0.500000000
CA__C000602 Ca      0.750000000      0.125000000      0.625000000
CA__C000603 Ca      0.875000000      0.000000000      0.625000000
CA__C000604 Ca      0.875000000      0.125000000      0.500000000
F___C000605 F       0.812500000      0.062500000      0.562500000
F___C000606 F       0.937500000      0.187500000      0.562500000
F___C000607 F       0.937500000      0.062500000      0.687500000
F___C000608 F       0.812500000      0.062500000      0.687500000
F___C000609 F       0.937500000      0.187500000      0.687500000
F___C000610 F       0.812500000      0.187500000      0.687500000
F___C000611 F       0.937500000      0.062500000      0.562500000
F___C000612 F       0.812500000      0.187500000      0.562500000
CA__C000613 Ca      0.750000000      0.000000000      0.750000000
CA__C000614 Ca      0.750000000      0.125000000      0.875000000
CA__C000615 Ca      0.875000000      0.000000000      0.875000000
CA__C000616 Ca      0.875000000      0.125000000      0.750000000
F___C000617 F       0.812500000      0.062500000      0.812500000
F___C000618 F       0.937500000      0.187500000      0.812500000
F___C000619 F       0.937500000      0.062500000      0.937500000
F___C000620 F       0.812500000      0.062500000      0.937500000
F___C000621 F       0.937500000      0.187500000      0.937500000
F___C000622 F       0.812500000      0.187500000      0.937500000
F___C000623 F       0.937500000      0.062500000      0.812500000
F___C000624 F       0.812500000      0.187500000      0.812500000
CA__C000625 Ca      0.750000000      0.250000000      0.000000000
CA__C000626 Ca      0.750000000      0.375000000      0.125000000
CA__C000627 Ca      0.875000000      0.250000000      0.125000000
CA__C000628 Ca      0.875000000      0.375000000      0.000000000
F___C000629 F       0.812500000      0.312500000      0.062500000
F___C000630 F       0.937500000      0.437500000      0.062500000
F___C000631 F       0.937500000      0.312500000      0.187500000
F___C000632 F       0.812500000      0.312500000      0.187500000
F___C000633 F       0.937500000      0.437500000      0.187500000
F___C000634 F       0.812500000      0.437500000      0.187500000
F___C000635 F       0.937500000      0.312500000      0.062500000
F___C000636 F       0.812500000      0.437500000      0.062500000
CA__C000637 Ca      0.750000000      0.250000000      0.250000000
CA__C000638 Ca      0.750000000      0.375000000      0.375000000
CA__C000639 Ca      0.875000000      0.250000000      0.375000000
CA__C000640 Ca      0.875000000      0.375000000      0.250000000
F___C000641 F       0.812500000      0.312500000      0.312500000
F___C000642 F       0.937500000      0.437500000      0.312500000
F___C000643 F       0.937500000      0.312500000      0.437500000
F___C000644 F       0.812500000      0.312500000      0.437500000
F___C000645 F       0.937500000      0.437500000      0.437500000
F___C000646 F       0.812500000      0.437500000      0.437500000
F___C000647 F       0.937500000      0.312500000      0.312500000
F___C000648 F       0.812500000      0.437500000      0.312500000
CA__C000649 Ca      0.750000000      0.250000000      0.500000000
CA__C000650 Ca      0.750000000      0.375000000      0.625000000
CA__C000651 Ca      0.875000000      0.250000000      0.625000000
CA__C000652 Ca      0.875000000      0.375000000      0.500000000
F___C000653 F       0.812500000      0.312500000      0.562500000
F___C000654 F       0.937500000      0.437500000      0.562500000
F___C000655 F       0.937500000      0.312500000      0.687500000
F___C000656 F       0.812500000      0.312500000      0.687500000
F___C000657 F       0.937500000      0.437500000      0.687500000
F___C000658 F       0.812500000      0.437500000      0.687500000
F___C000659 F       0.937500000      0.312500000      0.562500000
F___C000660 F       0.812500000      0.437500000      0.562500000
CA__C000661 Ca      0.750000000      0.250000000      0.750000000
CA__C000662 Ca      0.750000000      0.375000000      0.875000000
CA__C000663 Ca      0.875000000      0.250000000      0.875000000
CA__C000664 Ca      0.875000000      0.375000000      0.750000000
F___C000665 F       0.812500000      0.312500000      0.812500000
F___C000666 F       0.937500000      0.437500000      0.812500000
F___C000667 F       0.937500000      0.312500000      0.937500000
F___C000668 F       0.812500000      0.312500000      0.937500000
F___C000669 F       0.937500000      0.437500000      0.937500000
F___C000670 F       0.812500000      0.437500000      0.937500000
F___C000671 F       0.937500000      0.312500000      0.812500000
F___C000672 F       0.812500000      0.437500000      0.812500000
CA__C000673 Ca      0.750000000      0.500000000      0.000000000
CA__C000674 Ca      0.750000000      0.625000000      0.125000000
CA__C000675 Ca      0.875000000      0.500000000      0.125000000
CA__C000676 Ca      0.875000000      0.625000000      0.000000000
F___C000677 F       0.812500000      0.562500000      0.062500000
F___C000678 F       0.937500000      0.687500000      0.062500000
F___C000679 F       0.937500000      0.562500000      0.187500000
F___C000680 F       0.812500000      0.562500000      0.187500000
F___C000681 F       0.937500000      0.687500000      0.187500000
F___C000682 F       0.812500000      0.687500000      0.187500000
F___C000683 F       0.937500000      0.562500000      0.062500000
F___C000684 F       0.812500000      0.687500000      0.062500000
CA__C000685 Ca      0.750000000      0.500000000      0.250000000
CA__C000686 Ca      0.750000000      0.625000000      0.375000000
CA__C000687 Ca      0.875000000      0.500000000      0.375000000
CA__C000688 Ca      0.875000000      0.625000000      0.250000000
F___C000689 F       0.812500000      0.562500000      0.312500000
F___C000690 F       0.937500000      0.687500000      0.312500000
F___C000691 F       0.937500000      0.562500000      0.437500000
F___C000692 F       0.812500000      0.562500000      0.437500000
F___C000693 F       0.937500000      0.687500000      0.437500000
F___C000694 F       0.812500000      0.687500000      0.437500000
F___C000695 F       0.937500000      0.562500000      0.312500000
F___C000696 F       0.812500000      0.687500000      0.312500000
CA__C000697 Ca      0.750000000      0.500000000      0.500000000
CA__C000698 Ca      0.750000000      0.625000000      0.625000000
CA__C000699 Ca      0.875000000      0.500000000      0.625000000
CA__C000700 Ca      0.875000000      0.625000000      0.500000000
F___C000701 F       0.812500000      0.562500000      0.562500000
F___C000702 F       0.937500000      0.687500000      0.562500000
F___C000703 F       0.937500000      0.562500000      0.687500000
F___C000704 F       0.812500000      0.562500000      0.687500000
F___C000705 F       0.937500000      0.687500000      0.687500000
F___C000706 F       0.812500000      0.687500000      0.687500000
F___C000707 F       0.937500000      0.562500000      0.562500000
F___C000708 F       0.812500000      0.687500000      0.562500000
CA__C000709 Ca      0.750000000      0.500000000      0.750000000
CA__C000710 Ca      0.750000000      0.625000000      0.875000000
CA__C000711 Ca      0.875000000      0.500000000      0.875000000
CA__C000712 Ca      0.875000000      0.625000000      0.750000000
F___C000713 F       0.812500000      0.562500000      0.812500000
F___C000714 F       0.937500000      0.687500000      0.812500000
F___C000715 F       0.937500000      0.562500000      0.937500000
F___C000716 F       0.812500000      0.562500000      0.937500000
F___C000717 F       0.937500000      0.687500000      0.937500000
F___C000718 F       0.812500000      0.687500000      0.937500000
F___C000719 F       0.937500000      0.562500000      0.812500000
F___C000720 F       0.812500000      0.687500000      0.812500000
CA__C000721 Ca      0.750000000      0.750000000      0.000000000
CA__C000722 Ca      0.750000000      0.875000000      0.125000000
CA__C000723 Ca      0.875000000      0.750000000      0.125000000
CA__C000724 Ca      0.875000000      0.875000000      0.000000000
F___C000725 F       0.812500000      0.812500000      0.062500000
F___C000726 F       0.937500000      0.937500000      0.062500000
F___C000727 F       0.937500000      0.812500000      0.187500000
F___C000728 F       0.812500000      0.812500000      0.187500000
F___C000729 F       0.937500000      0.937500000      0.187500000
F___C000730 F       0.812500000      0.937500000      0.187500000
F___C000731 F       0.937500000      0.812500000      0.062500000
F___C000732 F       0.812500000      0.937500000      0.062500000
CA__C000733 Ca      0.750000000      0.750000000      0.250000000
CA__C000734 Ca      0.750000000      0.875000000      0.375000000
CA__C000735 Ca      0.875000000      0.750000000      0.375000000
CA__C000736 Ca      0.875000000      0.875000000      0.250000000
F___C000737 F       0.812500000      0.812500000      0.312500000
F___C000738 F       0.937500000      0.937500000      0.312500000
F___C000739 F       0.937500000      0.812500000      0.437500000
F___C000740 F       0.812500000      0.812500000      0.437500000
F___C000741 F       0.937500000      0.937500000      0.437500000
F___C000742 F       0.812500000      0.937500000      0.437500000
F___C000743 F       0.937500000      0.812500000      0.312500000
F___C000744 F       0.812500000      0.937500000      0.312500000
CA__C000745 Ca      0.750000000      0.750000000      0.500000000
CA__C000746 Ca      0.750000000      0.875000000      0.625000000
CA__C000747 Ca      0.875000000      0.750000000      0.625000000
CA__C000748 Ca      0.875000000      0.875000000      0.500000000
F___C000749 F       0.812500000      0.812500000      0.562500000
F___C000750 F       0.937500000      0.937500000      0.562500000
F___C000751 F       0.937500000      0.812500000      0.687500000
F___C000752 F       0.812500000      0.812500000      0.687500000
F___C000753 F       0.937500000      0.937500000      0.687500000
F___C000754 F       0.812500000      0.937500000      0.687500000
F___C000755 F       0.937500000      0.812500000      0.562500000
F___C000756 F       0.812500000      0.937500000      0.562500000
CA__C000757 Ca      0.750000000      0.750000000      0.750000000
CA__C000758 Ca      0.750000000      0.875000000      0.875000000
CA__C000759 Ca      0.875000000      0.750000000      0.875000000
CA__C000760 Ca      0.875000000      0.875000000      0.750000000
F___C000761 F       0.812500000      0.812500000      0.812500000
F___C000762 F       0.937500000      0.937500000      0.812500000
F___C000763 F       0.937500000      0.812500000      0.937500000
F___C000764 F       0.812500000      0.812500000      0.937500000
F___C000765 F       0.937500000      0.937500000      0.937500000
F___C000766 F       0.812500000      0.937500000      0.937500000
F___C000767 F       0.937500000      0.812500000      0.812500000
F___C000768 F       0.812500000      0.937500000      0.812500000
