data_Metadise_cif_o0001 
 
_symmetry_cell_setting triclinic
_symmetry_space_group_name_H-M P 1
_symmetry_Int_Tables_number 1
 
_symmetry_cell_setting 'triclinic' 
_symmetry_space_group_name_H-M 'P 1' 
_symmetry_Int_Tables_number 1
 
_cell_length_a        21.85600
_cell_length_b        21.85600
_cell_length_c        21.85600
_cell_angle_alpha   90.00000
_cell_angle_beta   90.00000
_cell_angle_gamma   90.00000
 
loop_
_symmetry_equiv_pos_as_xyz
  'x,y,z' 
 
loop_
_atom_site_label
_atom_site_type_symbol
_atom_site_fract_x
_atom_site_fract_y
_atom_site_fract_z
LA__C000001 La      0.000000000      0.000000000      0.000000000
CA__C000002 Ca      0.000000000      0.125000000      0.125000000
CA__C000003 Ca      0.125000000      0.000000000      0.125000000
CA__C000004 Ca      0.125000000      0.125000000      0.000000000
CA__C000005 Ca      0.000000000      0.000000000      0.250000000
CA__C000006 Ca      0.000000000      0.125000000      0.375000000
CA__C000007 Ca      0.125000000      0.000000000      0.375000000
CA__C000008 Ca      0.125000000      0.125000000      0.250000000
CA__C000009 Ca      0.000000000      0.000000000      0.500000000
CA__C000010 Ca      0.000000000      0.125000000      0.625000000
CA__C000011 Ca      0.125000000      0.000000000      0.625000000
LA__C000012 La      0.125000000      0.125000000      0.500000000
CA__C000013 Ca      0.000000000      0.000000000      0.750000000
CA__C000014 Ca      0.000000000      0.125000000      0.875000000
CA__C000015 Ca      0.125000000      0.125000000      0.750000000
CA__C000016 Ca      0.000000000      0.250000000      0.000000000
CA__C000017 Ca      0.000000000      0.375000000      0.125000000
CA__C000018 Ca      0.125000000      0.375000000      0.000000000
CA__C000019 Ca      0.000000000      0.250000000      0.250000000
LA__C000020 La      0.000000000      0.375000000      0.375000000
CA__C000021 Ca      0.125000000      0.250000000      0.375000000
CA__C000022 Ca      0.125000000      0.375000000      0.250000000
LA__C000023 La      0.000000000      0.250000000      0.500000000
CA__C000024 Ca      0.000000000      0.375000000      0.625000000
LA__C000025 La      0.125000000      0.250000000      0.625000000
CA__C000026 Ca      0.125000000      0.375000000      0.500000000
CA__C000027 Ca      0.000000000      0.250000000      0.750000000
CA__C000028 Ca      0.000000000      0.375000000      0.875000000
CA__C000029 Ca      0.125000000      0.250000000      0.875000000
CA__C000030 Ca      0.125000000      0.375000000      0.750000000
CA__C000031 Ca      0.000000000      0.500000000      0.000000000
CA__C000032 Ca      0.000000000      0.625000000      0.125000000
CA__C000033 Ca      0.125000000      0.500000000      0.125000000
CA__C000034 Ca      0.125000000      0.625000000      0.000000000
CA__C000035 Ca      0.000000000      0.500000000      0.250000000
CA__C000036 Ca      0.000000000      0.625000000      0.375000000
CA__C000037 Ca      0.125000000      0.500000000      0.375000000
CA__C000038 Ca      0.125000000      0.625000000      0.250000000
LA__C000039 La      0.000000000      0.500000000      0.500000000
CA__C000040 Ca      0.000000000      0.625000000      0.625000000
CA__C000041 Ca      0.125000000      0.500000000      0.625000000
CA__C000042 Ca      0.125000000      0.625000000      0.500000000
CA__C000043 Ca      0.000000000      0.500000000      0.750000000
LA__C000044 La      0.000000000      0.625000000      0.875000000
CA__C000045 Ca      0.125000000      0.500000000      0.875000000
LA__C000046 La      0.000000000      0.750000000      0.000000000
CA__C000047 Ca      0.000000000      0.875000000      0.125000000
CA__C000048 Ca      0.125000000      0.875000000      0.000000000
CA__C000049 Ca      0.000000000      0.750000000      0.250000000
CA__C000050 Ca      0.000000000      0.875000000      0.375000000
CA__C000051 Ca      0.125000000      0.750000000      0.375000000
CA__C000052 Ca      0.125000000      0.875000000      0.250000000
CA__C000053 Ca      0.000000000      0.750000000      0.500000000
CA__C000054 Ca      0.000000000      0.875000000      0.625000000
CA__C000055 Ca      0.125000000      0.750000000      0.625000000
CA__C000056 Ca      0.125000000      0.875000000      0.500000000
CA__C000057 Ca      0.000000000      0.750000000      0.750000000
CA__C000058 Ca      0.000000000      0.875000000      0.875000000
CA__C000059 Ca      0.125000000      0.750000000      0.875000000
CA__C000060 Ca      0.125000000      0.875000000      0.750000000
CA__C000061 Ca      0.250000000      0.000000000      0.000000000
LA__C000062 La      0.250000000      0.125000000      0.125000000
CA__C000063 Ca      0.375000000      0.000000000      0.125000000
CA__C000064 Ca      0.375000000      0.125000000      0.000000000
CA__C000065 Ca      0.250000000      0.000000000      0.250000000
LA__C000066 La      0.250000000      0.125000000      0.375000000
CA__C000067 Ca      0.375000000      0.000000000      0.375000000
CA__C000068 Ca      0.375000000      0.125000000      0.250000000
CA__C000069 Ca      0.250000000      0.000000000      0.500000000
CA__C000070 Ca      0.250000000      0.125000000      0.625000000
CA__C000071 Ca      0.375000000      0.000000000      0.625000000
CA__C000072 Ca      0.375000000      0.125000000      0.500000000
CA__C000073 Ca      0.250000000      0.000000000      0.750000000
CA__C000074 Ca      0.250000000      0.125000000      0.875000000
CA__C000075 Ca      0.375000000      0.000000000      0.875000000
CA__C000076 Ca      0.375000000      0.125000000      0.750000000
CA__C000077 Ca      0.250000000      0.250000000      0.000000000
CA__C000078 Ca      0.250000000      0.375000000      0.125000000
CA__C000079 Ca      0.375000000      0.250000000      0.125000000
CA__C000080 Ca      0.375000000      0.375000000      0.000000000
CA__C000081 Ca      0.250000000      0.250000000      0.250000000
CA__C000082 Ca      0.250000000      0.375000000      0.375000000
CA__C000083 Ca      0.375000000      0.375000000      0.250000000
CA__C000084 Ca      0.250000000      0.250000000      0.500000000
CA__C000085 Ca      0.250000000      0.375000000      0.625000000
CA__C000086 Ca      0.375000000      0.250000000      0.625000000
CA__C000087 Ca      0.375000000      0.375000000      0.500000000
CA__C000088 Ca      0.250000000      0.250000000      0.750000000
CA__C000089 Ca      0.250000000      0.375000000      0.875000000
CA__C000090 Ca      0.375000000      0.250000000      0.875000000
LA__C000091 La      0.375000000      0.375000000      0.750000000
LA__C000092 La      0.250000000      0.500000000      0.000000000
CA__C000093 Ca      0.250000000      0.625000000      0.125000000
CA__C000094 Ca      0.375000000      0.500000000      0.125000000
CA__C000095 Ca      0.375000000      0.625000000      0.000000000
CA__C000096 Ca      0.250000000      0.500000000      0.250000000
LA__C000097 La      0.250000000      0.625000000      0.375000000
CA__C000098 Ca      0.375000000      0.500000000      0.375000000
CA__C000099 Ca      0.375000000      0.625000000      0.250000000
CA__C000100 Ca      0.250000000      0.500000000      0.500000000
CA__C000101 Ca      0.250000000      0.625000000      0.625000000
CA__C000102 Ca      0.375000000      0.500000000      0.625000000
CA__C000103 Ca      0.375000000      0.625000000      0.500000000
CA__C000104 Ca      0.250000000      0.500000000      0.750000000
CA__C000105 Ca      0.250000000      0.625000000      0.875000000
CA__C000106 Ca      0.375000000      0.500000000      0.875000000
CA__C000107 Ca      0.375000000      0.625000000      0.750000000
CA__C000108 Ca      0.250000000      0.750000000      0.000000000
LA__C000109 La      0.250000000      0.875000000      0.125000000
CA__C000110 Ca      0.375000000      0.750000000      0.125000000
CA__C000111 Ca      0.375000000      0.875000000      0.000000000
CA__C000112 Ca      0.250000000      0.750000000      0.250000000
CA__C000113 Ca      0.250000000      0.875000000      0.375000000
CA__C000114 Ca      0.375000000      0.875000000      0.250000000
CA__C000115 Ca      0.250000000      0.750000000      0.500000000
CA__C000116 Ca      0.250000000      0.875000000      0.625000000
CA__C000117 Ca      0.375000000      0.875000000      0.500000000
LA__C000118 La      0.250000000      0.750000000      0.750000000
CA__C000119 Ca      0.250000000      0.875000000      0.875000000
LA__C000120 La      0.375000000      0.750000000      0.875000000
CA__C000121 Ca      0.375000000      0.875000000      0.750000000
LA__C000122 La      0.500000000      0.000000000      0.000000000
CA__C000123 Ca      0.500000000      0.125000000      0.125000000
CA__C000124 Ca      0.625000000      0.000000000      0.125000000
CA__C000125 Ca      0.625000000      0.125000000      0.000000000
CA__C000126 Ca      0.500000000      0.000000000      0.250000000
CA__C000127 Ca      0.500000000      0.125000000      0.375000000
CA__C000128 Ca      0.625000000      0.000000000      0.375000000
CA__C000129 Ca      0.625000000      0.125000000      0.250000000
CA__C000130 Ca      0.500000000      0.000000000      0.500000000
CA__C000131 Ca      0.500000000      0.125000000      0.625000000
CA__C000132 Ca      0.625000000      0.000000000      0.625000000
CA__C000133 Ca      0.625000000      0.125000000      0.500000000
CA__C000134 Ca      0.500000000      0.000000000      0.750000000
CA__C000135 Ca      0.500000000      0.125000000      0.875000000
CA__C000136 Ca      0.625000000      0.000000000      0.875000000
CA__C000137 Ca      0.625000000      0.125000000      0.750000000
CA__C000138 Ca      0.500000000      0.250000000      0.000000000
CA__C000139 Ca      0.500000000      0.375000000      0.125000000
CA__C000140 Ca      0.625000000      0.250000000      0.125000000
CA__C000141 Ca      0.625000000      0.375000000      0.000000000
CA__C000142 Ca      0.500000000      0.250000000      0.250000000
CA__C000143 Ca      0.500000000      0.375000000      0.375000000
CA__C000144 Ca      0.625000000      0.250000000      0.375000000
CA__C000145 Ca      0.625000000      0.375000000      0.250000000
CA__C000146 Ca      0.500000000      0.250000000      0.500000000
CA__C000147 Ca      0.500000000      0.375000000      0.625000000
CA__C000148 Ca      0.625000000      0.250000000      0.625000000
CA__C000149 Ca      0.625000000      0.375000000      0.500000000
CA__C000150 Ca      0.500000000      0.250000000      0.750000000
CA__C000151 Ca      0.500000000      0.375000000      0.875000000
LA__C000152 La      0.625000000      0.250000000      0.875000000
CA__C000153 Ca      0.500000000      0.500000000      0.000000000
CA__C000154 Ca      0.500000000      0.625000000      0.125000000
LA__C000155 La      0.625000000      0.500000000      0.125000000
CA__C000156 Ca      0.625000000      0.625000000      0.000000000
CA__C000157 Ca      0.500000000      0.500000000      0.250000000
CA__C000158 Ca      0.500000000      0.625000000      0.375000000
CA__C000159 Ca      0.625000000      0.500000000      0.375000000
CA__C000160 Ca      0.625000000      0.625000000      0.250000000
LA__C000161 La      0.500000000      0.500000000      0.500000000
CA__C000162 Ca      0.500000000      0.625000000      0.625000000
CA__C000163 Ca      0.625000000      0.500000000      0.625000000
CA__C000164 Ca      0.625000000      0.625000000      0.500000000
CA__C000165 Ca      0.500000000      0.500000000      0.750000000
CA__C000166 Ca      0.500000000      0.625000000      0.875000000
CA__C000167 Ca      0.625000000      0.500000000      0.875000000
LA__C000168 La      0.625000000      0.625000000      0.750000000
CA__C000169 Ca      0.500000000      0.750000000      0.000000000
CA__C000170 Ca      0.500000000      0.875000000      0.125000000
CA__C000171 Ca      0.625000000      0.750000000      0.125000000
CA__C000172 Ca      0.625000000      0.875000000      0.000000000
CA__C000173 Ca      0.500000000      0.750000000      0.250000000
CA__C000174 Ca      0.625000000      0.750000000      0.375000000
CA__C000175 Ca      0.625000000      0.875000000      0.250000000
CA__C000176 Ca      0.500000000      0.750000000      0.500000000
CA__C000177 Ca      0.500000000      0.875000000      0.625000000
CA__C000178 Ca      0.625000000      0.750000000      0.625000000
CA__C000179 Ca      0.625000000      0.875000000      0.500000000
CA__C000180 Ca      0.500000000      0.750000000      0.750000000
CA__C000181 Ca      0.500000000      0.875000000      0.875000000
CA__C000182 Ca      0.625000000      0.750000000      0.875000000
CA__C000183 Ca      0.625000000      0.875000000      0.750000000
CA__C000184 Ca      0.750000000      0.000000000      0.000000000
CA__C000185 Ca      0.750000000      0.125000000      0.125000000
CA__C000186 Ca      0.875000000      0.000000000      0.125000000
CA__C000187 Ca      0.875000000      0.125000000      0.000000000
CA__C000188 Ca      0.750000000      0.000000000      0.250000000
LA__C000189 La      0.750000000      0.125000000      0.375000000
CA__C000190 Ca      0.875000000      0.000000000      0.375000000
CA__C000191 Ca      0.875000000      0.125000000      0.250000000
CA__C000192 Ca      0.750000000      0.000000000      0.500000000
CA__C000193 Ca      0.750000000      0.125000000      0.625000000
LA__C000194 La      0.875000000      0.000000000      0.625000000
CA__C000195 Ca      0.875000000      0.125000000      0.500000000
CA__C000196 Ca      0.750000000      0.000000000      0.750000000
CA__C000197 Ca      0.750000000      0.125000000      0.875000000
CA__C000198 Ca      0.875000000      0.000000000      0.875000000
CA__C000199 Ca      0.875000000      0.125000000      0.750000000
CA__C000200 Ca      0.750000000      0.250000000      0.000000000
CA__C000201 Ca      0.750000000      0.375000000      0.125000000
CA__C000202 Ca      0.875000000      0.250000000      0.125000000
CA__C000203 Ca      0.875000000      0.375000000      0.000000000
CA__C000204 Ca      0.750000000      0.250000000      0.250000000
CA__C000205 Ca      0.750000000      0.375000000      0.375000000
CA__C000206 Ca      0.875000000      0.250000000      0.375000000
CA__C000207 Ca      0.875000000      0.375000000      0.250000000
CA__C000208 Ca      0.750000000      0.250000000      0.500000000
CA__C000209 Ca      0.750000000      0.375000000      0.625000000
CA__C000210 Ca      0.875000000      0.250000000      0.625000000
CA__C000211 Ca      0.750000000      0.250000000      0.750000000
CA__C000212 Ca      0.750000000      0.375000000      0.875000000
CA__C000213 Ca      0.875000000      0.250000000      0.875000000
CA__C000214 Ca      0.875000000      0.375000000      0.750000000
CA__C000215 Ca      0.750000000      0.500000000      0.000000000
CA__C000216 Ca      0.750000000      0.625000000      0.125000000
CA__C000217 Ca      0.875000000      0.500000000      0.125000000
CA__C000218 Ca      0.875000000      0.625000000      0.000000000
CA__C000219 Ca      0.750000000      0.625000000      0.375000000
CA__C000220 Ca      0.875000000      0.625000000      0.250000000
CA__C000221 Ca      0.750000000      0.500000000      0.500000000
CA__C000222 Ca      0.750000000      0.625000000      0.625000000
CA__C000223 Ca      0.875000000      0.500000000      0.625000000
LA__C000224 La      0.875000000      0.625000000      0.500000000
CA__C000225 Ca      0.750000000      0.500000000      0.750000000
CA__C000226 Ca      0.750000000      0.625000000      0.875000000
CA__C000227 Ca      0.875000000      0.500000000      0.875000000
CA__C000228 Ca      0.875000000      0.625000000      0.750000000
CA__C000229 Ca      0.750000000      0.750000000      0.000000000
CA__C000230 Ca      0.750000000      0.875000000      0.125000000
CA__C000231 Ca      0.875000000      0.750000000      0.125000000
CA__C000232 Ca      0.875000000      0.875000000      0.000000000
CA__C000233 Ca      0.750000000      0.750000000      0.250000000
CA__C000234 Ca      0.750000000      0.875000000      0.375000000
CA__C000235 Ca      0.875000000      0.750000000      0.375000000
CA__C000236 Ca      0.875000000      0.875000000      0.250000000
CA__C000237 Ca      0.750000000      0.750000000      0.500000000
CA__C000238 Ca      0.750000000      0.875000000      0.625000000
CA__C000239 Ca      0.875000000      0.750000000      0.625000000
CA__C000240 Ca      0.875000000      0.875000000      0.500000000
CA__C000241 Ca      0.750000000      0.750000000      0.750000000
LA__C000242 La      0.750000000      0.875000000      0.875000000
CA__C000243 Ca      0.875000000      0.750000000      0.875000000
CA__C000244 Ca      0.875000000      0.875000000      0.750000000
F___C000245 F       0.062500000      0.062500000      0.062500000
F___C000246 F       0.187500000      0.187500000      0.062500000
F___C000247 F       0.187500000      0.062500000      0.187500000
F___C000248 F       0.062500000      0.062500000      0.187500000
F___C000249 F       0.187500000      0.187500000      0.187500000
F___C000250 F       0.062500000      0.187500000      0.187500000
F___C000251 F       0.187500000      0.062500000      0.062500000
F___C000252 F       0.062500000      0.187500000      0.062500000
F___C000253 F       0.062500000      0.062500000      0.312500000
F___C000254 F       0.187500000      0.187500000      0.312500000
F___C000255 F       0.187500000      0.062500000      0.437500000
F___C000256 F       0.062500000      0.062500000      0.437500000
F___C000257 F       0.187500000      0.187500000      0.437500000
F___C000258 F       0.062500000      0.187500000      0.437500000
F___C000259 F       0.187500000      0.062500000      0.312500000
F___C000260 F       0.062500000      0.187500000      0.312500000
F___C000261 F       0.062500000      0.062500000      0.562500000
F___C000262 F       0.187500000      0.187500000      0.562500000
F___C000263 F       0.187500000      0.062500000      0.687500000
F___C000264 F       0.062500000      0.062500000      0.687500000
F___C000265 F       0.187500000      0.187500000      0.687500000
F___C000266 F       0.062500000      0.187500000      0.687500000
F___C000267 F       0.187500000      0.062500000      0.562500000
F___C000268 F       0.062500000      0.187500000      0.562500000
F___C000269 F       0.062500000      0.062500000      0.812500000
F___C000270 F       0.187500000      0.187500000      0.812500000
F___C000271 F       0.187500000      0.062500000      0.937500000
F___C000272 F       0.062500000      0.062500000      0.937500000
F___C000273 F       0.187500000      0.187500000      0.937500000
F___C000274 F       0.062500000      0.187500000      0.937500000
F___C000275 F       0.187500000      0.062500000      0.812500000
F___C000276 F       0.062500000      0.187500000      0.812500000
F___C000277 F       0.062500000      0.312500000      0.062500000
F___C000278 F       0.187500000      0.437500000      0.062500000
F___C000279 F       0.187500000      0.312500000      0.187500000
F___C000280 F       0.062500000      0.312500000      0.187500000
F___C000281 F       0.187500000      0.437500000      0.187500000
F___C000282 F       0.062500000      0.437500000      0.187500000
F___C000283 F       0.187500000      0.312500000      0.062500000
F___C000284 F       0.062500000      0.437500000      0.062500000
F___C000285 F       0.062500000      0.312500000      0.312500000
F___C000286 F       0.187500000      0.437500000      0.312500000
F___C000287 F       0.187500000      0.312500000      0.437500000
F___C000288 F       0.062500000      0.312500000      0.437500000
F___C000289 F       0.187500000      0.437500000      0.437500000
F___C000290 F       0.062500000      0.437500000      0.437500000
F___C000291 F       0.187500000      0.312500000      0.312500000
F___C000292 F       0.062500000      0.437500000      0.312500000
F___C000293 F       0.062500000      0.312500000      0.562500000
F___C000294 F       0.187500000      0.437500000      0.562500000
F___C000295 F       0.187500000      0.312500000      0.687500000
F___C000296 F       0.062500000      0.312500000      0.687500000
F___C000297 F       0.187500000      0.437500000      0.687500000
F___C000298 F       0.062500000      0.437500000      0.687500000
F___C000299 F       0.187500000      0.312500000      0.562500000
F___C000300 F       0.062500000      0.437500000      0.562500000
F___C000301 F       0.062500000      0.312500000      0.812500000
F___C000302 F       0.187500000      0.437500000      0.812500000
F___C000303 F       0.187500000      0.312500000      0.937500000
F___C000304 F       0.062500000      0.312500000      0.937500000
F___C000305 F       0.187500000      0.437500000      0.937500000
F___C000306 F       0.062500000      0.437500000      0.937500000
F___C000307 F       0.187500000      0.312500000      0.812500000
F___C000308 F       0.062500000      0.437500000      0.812500000
F___C000309 F       0.062500000      0.562500000      0.062500000
F___C000310 F       0.187500000      0.687500000      0.062500000
F___C000311 F       0.187500000      0.562500000      0.187500000
F___C000312 F       0.062500000      0.562500000      0.187500000
F___C000313 F       0.187500000      0.687500000      0.187500000
F___C000314 F       0.062500000      0.687500000      0.187500000
F___C000315 F       0.187500000      0.562500000      0.062500000
F___C000316 F       0.062500000      0.687500000      0.062500000
F___C000317 F       0.062500000      0.562500000      0.312500000
F___C000318 F       0.187500000      0.687500000      0.312500000
F___C000319 F       0.187500000      0.562500000      0.437500000
F___C000320 F       0.062500000      0.562500000      0.437500000
F___C000321 F       0.187500000      0.687500000      0.437500000
F___C000322 F       0.062500000      0.687500000      0.437500000
F___C000323 F       0.187500000      0.562500000      0.312500000
F___C000324 F       0.062500000      0.687500000      0.312500000
F___C000325 F       0.062500000      0.562500000      0.562500000
F___C000326 F       0.187500000      0.687500000      0.562500000
F___C000327 F       0.187500000      0.562500000      0.687500000
F___C000328 F       0.062500000      0.562500000      0.687500000
F___C000329 F       0.187500000      0.687500000      0.687500000
F___C000330 F       0.062500000      0.687500000      0.687500000
F___C000331 F       0.187500000      0.562500000      0.562500000
F___C000332 F       0.062500000      0.687500000      0.562500000
F___C000333 F       0.062500000      0.562500000      0.812500000
F___C000334 F       0.187500000      0.687500000      0.812500000
F___C000335 F       0.187500000      0.562500000      0.937500000
F___C000336 F       0.062500000      0.562500000      0.937500000
F___C000337 F       0.187500000      0.687500000      0.937500000
F___C000338 F       0.062500000      0.687500000      0.937500000
F___C000339 F       0.187500000      0.562500000      0.812500000
F___C000340 F       0.062500000      0.687500000      0.812500000
F___C000341 F       0.062500000      0.812500000      0.062500000
F___C000342 F       0.187500000      0.937500000      0.062500000
F___C000343 F       0.187500000      0.812500000      0.187500000
F___C000344 F       0.062500000      0.812500000      0.187500000
F___C000345 F       0.187500000      0.937500000      0.187500000
F___C000346 F       0.062500000      0.937500000      0.187500000
F___C000347 F       0.187500000      0.812500000      0.062500000
F___C000348 F       0.062500000      0.937500000      0.062500000
F___C000349 F       0.062500000      0.812500000      0.312500000
F___C000350 F       0.187500000      0.937500000      0.312500000
F___C000351 F       0.187500000      0.812500000      0.437500000
F___C000352 F       0.062500000      0.812500000      0.437500000
F___C000353 F       0.187500000      0.937500000      0.437500000
F___C000354 F       0.062500000      0.937500000      0.437500000
F___C000355 F       0.187500000      0.812500000      0.312500000
F___C000356 F       0.062500000      0.937500000      0.312500000
F___C000357 F       0.062500000      0.812500000      0.562500000
F___C000358 F       0.187500000      0.937500000      0.562500000
F___C000359 F       0.187500000      0.812500000      0.687500000
F___C000360 F       0.062500000      0.812500000      0.687500000
F___C000361 F       0.187500000      0.937500000      0.687500000
F___C000362 F       0.062500000      0.937500000      0.687500000
F___C000363 F       0.187500000      0.812500000      0.562500000
F___C000364 F       0.062500000      0.937500000      0.562500000
F___C000365 F       0.062500000      0.812500000      0.812500000
F___C000366 F       0.187500000      0.937500000      0.812500000
F___C000367 F       0.187500000      0.812500000      0.937500000
F___C000368 F       0.062500000      0.812500000      0.937500000
F___C000369 F       0.187500000      0.937500000      0.937500000
F___C000370 F       0.062500000      0.937500000      0.937500000
F___C000371 F       0.187500000      0.812500000      0.812500000
F___C000372 F       0.062500000      0.937500000      0.812500000
F___C000373 F       0.312500000      0.062500000      0.062500000
F___C000374 F       0.437500000      0.187500000      0.062500000
F___C000375 F       0.437500000      0.062500000      0.187500000
F___C000376 F       0.312500000      0.062500000      0.187500000
F___C000377 F       0.437500000      0.187500000      0.187500000
F___C000378 F       0.312500000      0.187500000      0.187500000
F___C000379 F       0.437500000      0.062500000      0.062500000
F___C000380 F       0.312500000      0.187500000      0.062500000
F___C000381 F       0.312500000      0.062500000      0.312500000
F___C000382 F       0.437500000      0.187500000      0.312500000
F___C000383 F       0.437500000      0.062500000      0.437500000
F___C000384 F       0.312500000      0.062500000      0.437500000
F___C000385 F       0.437500000      0.187500000      0.437500000
F___C000386 F       0.312500000      0.187500000      0.437500000
F___C000387 F       0.437500000      0.062500000      0.312500000
F___C000388 F       0.312500000      0.187500000      0.312500000
F___C000389 F       0.312500000      0.062500000      0.562500000
F___C000390 F       0.437500000      0.187500000      0.562500000
F___C000391 F       0.437500000      0.062500000      0.687500000
F___C000392 F       0.312500000      0.062500000      0.687500000
F___C000393 F       0.437500000      0.187500000      0.687500000
F___C000394 F       0.312500000      0.187500000      0.687500000
F___C000395 F       0.437500000      0.062500000      0.562500000
F___C000396 F       0.312500000      0.187500000      0.562500000
F___C000397 F       0.312500000      0.062500000      0.812500000
F___C000398 F       0.437500000      0.187500000      0.812500000
F___C000399 F       0.437500000      0.062500000      0.937500000
F___C000400 F       0.312500000      0.062500000      0.937500000
F___C000401 F       0.437500000      0.187500000      0.937500000
F___C000402 F       0.312500000      0.187500000      0.937500000
F___C000403 F       0.437500000      0.062500000      0.812500000
F___C000404 F       0.312500000      0.187500000      0.812500000
F___C000405 F       0.312500000      0.312500000      0.062500000
F___C000406 F       0.437500000      0.437500000      0.062500000
F___C000407 F       0.437500000      0.312500000      0.187500000
F___C000408 F       0.312500000      0.312500000      0.187500000
F___C000409 F       0.437500000      0.437500000      0.187500000
F___C000410 F       0.312500000      0.437500000      0.187500000
F___C000411 F       0.437500000      0.312500000      0.062500000
F___C000412 F       0.312500000      0.437500000      0.062500000
F___C000413 F       0.312500000      0.312500000      0.312500000
F___C000414 F       0.437500000      0.437500000      0.312500000
F___C000415 F       0.437500000      0.312500000      0.437500000
F___C000416 F       0.312500000      0.312500000      0.437500000
F___C000417 F       0.437500000      0.437500000      0.437500000
F___C000418 F       0.312500000      0.437500000      0.437500000
F___C000419 F       0.437500000      0.312500000      0.312500000
F___C000420 F       0.312500000      0.437500000      0.312500000
F___C000421 F       0.312500000      0.312500000      0.562500000
F___C000422 F       0.437500000      0.437500000      0.562500000
F___C000423 F       0.437500000      0.312500000      0.687500000
F___C000424 F       0.312500000      0.312500000      0.687500000
F___C000425 F       0.437500000      0.437500000      0.687500000
F___C000426 F       0.312500000      0.437500000      0.687500000
F___C000427 F       0.437500000      0.312500000      0.562500000
F___C000428 F       0.312500000      0.437500000      0.562500000
F___C000429 F       0.312500000      0.312500000      0.812500000
F___C000430 F       0.437500000      0.437500000      0.812500000
F___C000431 F       0.437500000      0.312500000      0.937500000
F___C000432 F       0.312500000      0.312500000      0.937500000
F___C000433 F       0.437500000      0.437500000      0.937500000
F___C000434 F       0.312500000      0.437500000      0.937500000
F___C000435 F       0.437500000      0.312500000      0.812500000
F___C000436 F       0.312500000      0.437500000      0.812500000
F___C000437 F       0.312500000      0.562500000      0.062500000
F___C000438 F       0.437500000      0.687500000      0.062500000
F___C000439 F       0.437500000      0.562500000      0.187500000
F___C000440 F       0.312500000      0.562500000      0.187500000
F___C000441 F       0.437500000      0.687500000      0.187500000
F___C000442 F       0.312500000      0.687500000      0.187500000
F___C000443 F       0.437500000      0.562500000      0.062500000
F___C000444 F       0.312500000      0.687500000      0.062500000
F___C000445 F       0.312500000      0.562500000      0.312500000
F___C000446 F       0.437500000      0.687500000      0.312500000
F___C000447 F       0.437500000      0.562500000      0.437500000
F___C000448 F       0.312500000      0.562500000      0.437500000
F___C000449 F       0.437500000      0.687500000      0.437500000
F___C000450 F       0.312500000      0.687500000      0.437500000
F___C000451 F       0.437500000      0.562500000      0.312500000
F___C000452 F       0.312500000      0.687500000      0.312500000
F___C000453 F       0.312500000      0.562500000      0.562500000
F___C000454 F       0.437500000      0.687500000      0.562500000
F___C000455 F       0.437500000      0.562500000      0.687500000
F___C000456 F       0.312500000      0.562500000      0.687500000
F___C000457 F       0.437500000      0.687500000      0.687500000
F___C000458 F       0.312500000      0.687500000      0.687500000
F___C000459 F       0.437500000      0.562500000      0.562500000
F___C000460 F       0.312500000      0.687500000      0.562500000
F___C000461 F       0.312500000      0.562500000      0.812500000
F___C000462 F       0.437500000      0.687500000      0.812500000
F___C000463 F       0.437500000      0.562500000      0.937500000
F___C000464 F       0.312500000      0.562500000      0.937500000
F___C000465 F       0.437500000      0.687500000      0.937500000
F___C000466 F       0.312500000      0.687500000      0.937500000
F___C000467 F       0.437500000      0.562500000      0.812500000
F___C000468 F       0.312500000      0.687500000      0.812500000
F___C000469 F       0.312500000      0.812500000      0.062500000
F___C000470 F       0.437500000      0.937500000      0.062500000
F___C000471 F       0.437500000      0.812500000      0.187500000
F___C000472 F       0.312500000      0.812500000      0.187500000
F___C000473 F       0.437500000      0.937500000      0.187500000
F___C000474 F       0.312500000      0.937500000      0.187500000
F___C000475 F       0.437500000      0.812500000      0.062500000
F___C000476 F       0.312500000      0.937500000      0.062500000
F___C000477 F       0.312500000      0.812500000      0.312500000
F___C000478 F       0.437500000      0.937500000      0.312500000
F___C000479 F       0.437500000      0.812500000      0.437500000
F___C000480 F       0.312500000      0.812500000      0.437500000
F___C000481 F       0.437500000      0.937500000      0.437500000
F___C000482 F       0.312500000      0.937500000      0.437500000
F___C000483 F       0.437500000      0.812500000      0.312500000
F___C000484 F       0.312500000      0.937500000      0.312500000
F___C000485 F       0.312500000      0.812500000      0.562500000
F___C000486 F       0.437500000      0.937500000      0.562500000
F___C000487 F       0.437500000      0.812500000      0.687500000
F___C000488 F       0.312500000      0.812500000      0.687500000
F___C000489 F       0.437500000      0.937500000      0.687500000
F___C000490 F       0.312500000      0.937500000      0.687500000
F___C000491 F       0.437500000      0.812500000      0.562500000
F___C000492 F       0.312500000      0.937500000      0.562500000
F___C000493 F       0.312500000      0.812500000      0.812500000
F___C000494 F       0.437500000      0.937500000      0.812500000
F___C000495 F       0.437500000      0.812500000      0.937500000
F___C000496 F       0.312500000      0.812500000      0.937500000
F___C000497 F       0.437500000      0.937500000      0.937500000
F___C000498 F       0.312500000      0.937500000      0.937500000
F___C000499 F       0.437500000      0.812500000      0.812500000
F___C000500 F       0.312500000      0.937500000      0.812500000
F___C000501 F       0.562500000      0.062500000      0.062500000
F___C000502 F       0.687500000      0.187500000      0.062500000
F___C000503 F       0.687500000      0.062500000      0.187500000
F___C000504 F       0.562500000      0.062500000      0.187500000
F___C000505 F       0.687500000      0.187500000      0.187500000
F___C000506 F       0.562500000      0.187500000      0.187500000
F___C000507 F       0.687500000      0.062500000      0.062500000
F___C000508 F       0.562500000      0.187500000      0.062500000
F___C000509 F       0.562500000      0.062500000      0.312500000
F___C000510 F       0.687500000      0.187500000      0.312500000
F___C000511 F       0.687500000      0.062500000      0.437500000
F___C000512 F       0.562500000      0.062500000      0.437500000
F___C000513 F       0.687500000      0.187500000      0.437500000
F___C000514 F       0.562500000      0.187500000      0.437500000
F___C000515 F       0.687500000      0.062500000      0.312500000
F___C000516 F       0.562500000      0.187500000      0.312500000
F___C000517 F       0.562500000      0.062500000      0.562500000
F___C000518 F       0.687500000      0.187500000      0.562500000
F___C000519 F       0.687500000      0.062500000      0.687500000
F___C000520 F       0.562500000      0.062500000      0.687500000
F___C000521 F       0.687500000      0.187500000      0.687500000
F___C000522 F       0.562500000      0.187500000      0.687500000
F___C000523 F       0.687500000      0.062500000      0.562500000
F___C000524 F       0.562500000      0.187500000      0.562500000
F___C000525 F       0.562500000      0.062500000      0.812500000
F___C000526 F       0.687500000      0.187500000      0.812500000
F___C000527 F       0.687500000      0.062500000      0.937500000
F___C000528 F       0.562500000      0.062500000      0.937500000
F___C000529 F       0.687500000      0.187500000      0.937500000
F___C000530 F       0.562500000      0.187500000      0.937500000
F___C000531 F       0.687500000      0.062500000      0.812500000
F___C000532 F       0.562500000      0.187500000      0.812500000
F___C000533 F       0.562500000      0.312500000      0.062500000
F___C000534 F       0.687500000      0.437500000      0.062500000
F___C000535 F       0.687500000      0.312500000      0.187500000
F___C000536 F       0.562500000      0.312500000      0.187500000
F___C000537 F       0.687500000      0.437500000      0.187500000
F___C000538 F       0.562500000      0.437500000      0.187500000
F___C000539 F       0.687500000      0.312500000      0.062500000
F___C000540 F       0.562500000      0.437500000      0.062500000
F___C000541 F       0.562500000      0.312500000      0.312500000
F___C000542 F       0.687500000      0.437500000      0.312500000
F___C000543 F       0.687500000      0.312500000      0.437500000
F___C000544 F       0.562500000      0.312500000      0.437500000
F___C000545 F       0.687500000      0.437500000      0.437500000
F___C000546 F       0.562500000      0.437500000      0.437500000
F___C000547 F       0.687500000      0.312500000      0.312500000
F___C000548 F       0.562500000      0.437500000      0.312500000
F___C000549 F       0.562500000      0.312500000      0.562500000
F___C000550 F       0.687500000      0.437500000      0.562500000
F___C000551 F       0.687500000      0.312500000      0.687500000
F___C000552 F       0.562500000      0.312500000      0.687500000
F___C000553 F       0.687500000      0.437500000      0.687500000
F___C000554 F       0.562500000      0.437500000      0.687500000
F___C000555 F       0.687500000      0.312500000      0.562500000
F___C000556 F       0.562500000      0.437500000      0.562500000
F___C000557 F       0.562500000      0.312500000      0.812500000
F___C000558 F       0.687500000      0.437500000      0.812500000
F___C000559 F       0.687500000      0.312500000      0.937500000
F___C000560 F       0.562500000      0.312500000      0.937500000
F___C000561 F       0.687500000      0.437500000      0.937500000
F___C000562 F       0.562500000      0.437500000      0.937500000
F___C000563 F       0.687500000      0.312500000      0.812500000
F___C000564 F       0.562500000      0.437500000      0.812500000
F___C000565 F       0.562500000      0.562500000      0.062500000
F___C000566 F       0.687500000      0.687500000      0.062500000
F___C000567 F       0.687500000      0.562500000      0.187500000
F___C000568 F       0.562500000      0.562500000      0.187500000
F___C000569 F       0.687500000      0.687500000      0.187500000
F___C000570 F       0.562500000      0.687500000      0.187500000
F___C000571 F       0.687500000      0.562500000      0.062500000
F___C000572 F       0.562500000      0.687500000      0.062500000
F___C000573 F       0.562500000      0.562500000      0.312500000
F___C000574 F       0.687500000      0.687500000      0.312500000
F___C000575 F       0.687500000      0.562500000      0.437500000
F___C000576 F       0.562500000      0.562500000      0.437500000
F___C000577 F       0.687500000      0.687500000      0.437500000
F___C000578 F       0.562500000      0.687500000      0.437500000
F___C000579 F       0.687500000      0.562500000      0.312500000
F___C000580 F       0.562500000      0.687500000      0.312500000
F___C000581 F       0.562500000      0.562500000      0.562500000
F___C000582 F       0.687500000      0.687500000      0.562500000
F___C000583 F       0.687500000      0.562500000      0.687500000
F___C000584 F       0.562500000      0.562500000      0.687500000
F___C000585 F       0.687500000      0.687500000      0.687500000
F___C000586 F       0.562500000      0.687500000      0.687500000
F___C000587 F       0.687500000      0.562500000      0.562500000
F___C000588 F       0.562500000      0.687500000      0.562500000
F___C000589 F       0.562500000      0.562500000      0.812500000
F___C000590 F       0.687500000      0.687500000      0.812500000
F___C000591 F       0.687500000      0.562500000      0.937500000
F___C000592 F       0.562500000      0.562500000      0.937500000
F___C000593 F       0.687500000      0.687500000      0.937500000
F___C000594 F       0.562500000      0.687500000      0.937500000
F___C000595 F       0.687500000      0.562500000      0.812500000
F___C000596 F       0.562500000      0.687500000      0.812500000
F___C000597 F       0.562500000      0.812500000      0.062500000
F___C000598 F       0.687500000      0.937500000      0.062500000
F___C000599 F       0.687500000      0.812500000      0.187500000
F___C000600 F       0.562500000      0.812500000      0.187500000
F___C000601 F       0.687500000      0.937500000      0.187500000
F___C000602 F       0.562500000      0.937500000      0.187500000
F___C000603 F       0.687500000      0.812500000      0.062500000
F___C000604 F       0.562500000      0.937500000      0.062500000
F___C000605 F       0.562500000      0.812500000      0.312500000
F___C000606 F       0.687500000      0.937500000      0.312500000
F___C000607 F       0.687500000      0.812500000      0.437500000
F___C000608 F       0.562500000      0.812500000      0.437500000
F___C000609 F       0.687500000      0.937500000      0.437500000
F___C000610 F       0.562500000      0.937500000      0.437500000
F___C000611 F       0.687500000      0.812500000      0.312500000
F___C000612 F       0.562500000      0.937500000      0.312500000
F___C000613 F       0.562500000      0.812500000      0.562500000
F___C000614 F       0.687500000      0.937500000      0.562500000
F___C000615 F       0.687500000      0.812500000      0.687500000
F___C000616 F       0.562500000      0.812500000      0.687500000
F___C000617 F       0.687500000      0.937500000      0.687500000
F___C000618 F       0.562500000      0.937500000      0.687500000
F___C000619 F       0.687500000      0.812500000      0.562500000
F___C000620 F       0.562500000      0.937500000      0.562500000
F___C000621 F       0.562500000      0.812500000      0.812500000
F___C000622 F       0.687500000      0.937500000      0.812500000
F___C000623 F       0.687500000      0.812500000      0.937500000
F___C000624 F       0.562500000      0.812500000      0.937500000
F___C000625 F       0.687500000      0.937500000      0.937500000
F___C000626 F       0.562500000      0.937500000      0.937500000
F___C000627 F       0.687500000      0.812500000      0.812500000
F___C000628 F       0.562500000      0.937500000      0.812500000
F___C000629 F       0.812500000      0.062500000      0.062500000
F___C000630 F       0.937500000      0.187500000      0.062500000
F___C000631 F       0.937500000      0.062500000      0.187500000
F___C000632 F       0.812500000      0.062500000      0.187500000
F___C000633 F       0.937500000      0.187500000      0.187500000
F___C000634 F       0.812500000      0.187500000      0.187500000
F___C000635 F       0.937500000      0.062500000      0.062500000
F___C000636 F       0.812500000      0.187500000      0.062500000
F___C000637 F       0.812500000      0.062500000      0.312500000
F___C000638 F       0.937500000      0.187500000      0.312500000
F___C000639 F       0.937500000      0.062500000      0.437500000
F___C000640 F       0.812500000      0.062500000      0.437500000
F___C000641 F       0.937500000      0.187500000      0.437500000
F___C000642 F       0.812500000      0.187500000      0.437500000
F___C000643 F       0.937500000      0.062500000      0.312500000
F___C000644 F       0.812500000      0.187500000      0.312500000
F___C000645 F       0.812500000      0.062500000      0.562500000
F___C000646 F       0.937500000      0.187500000      0.562500000
F___C000647 F       0.937500000      0.062500000      0.687500000
F___C000648 F       0.812500000      0.062500000      0.687500000
F___C000649 F       0.937500000      0.187500000      0.687500000
F___C000650 F       0.812500000      0.187500000      0.687500000
F___C000651 F       0.937500000      0.062500000      0.562500000
F___C000652 F       0.812500000      0.187500000      0.562500000
F___C000653 F       0.812500000      0.062500000      0.812500000
F___C000654 F       0.937500000      0.187500000      0.812500000
F___C000655 F       0.937500000      0.062500000      0.937500000
F___C000656 F       0.812500000      0.062500000      0.937500000
F___C000657 F       0.937500000      0.187500000      0.937500000
F___C000658 F       0.812500000      0.187500000      0.937500000
F___C000659 F       0.937500000      0.062500000      0.812500000
F___C000660 F       0.812500000      0.187500000      0.812500000
F___C000661 F       0.812500000      0.312500000      0.062500000
F___C000662 F       0.937500000      0.437500000      0.062500000
F___C000663 F       0.937500000      0.312500000      0.187500000
F___C000664 F       0.812500000      0.312500000      0.187500000
F___C000665 F       0.937500000      0.437500000      0.187500000
F___C000666 F       0.812500000      0.437500000      0.187500000
F___C000667 F       0.937500000      0.312500000      0.062500000
F___C000668 F       0.812500000      0.437500000      0.062500000
F___C000669 F       0.812500000      0.312500000      0.312500000
F___C000670 F       0.937500000      0.437500000      0.312500000
F___C000671 F       0.937500000      0.312500000      0.437500000
F___C000672 F       0.812500000      0.312500000      0.437500000
F___C000673 F       0.937500000      0.437500000      0.437500000
F___C000674 F       0.812500000      0.437500000      0.437500000
F___C000675 F       0.937500000      0.312500000      0.312500000
F___C000676 F       0.812500000      0.437500000      0.312500000
F___C000677 F       0.812500000      0.312500000      0.562500000
F___C000678 F       0.937500000      0.437500000      0.562500000
F___C000679 F       0.937500000      0.312500000      0.687500000
F___C000680 F       0.812500000      0.312500000      0.687500000
F___C000681 F       0.937500000      0.437500000      0.687500000
F___C000682 F       0.812500000      0.437500000      0.687500000
F___C000683 F       0.937500000      0.312500000      0.562500000
F___C000684 F       0.812500000      0.437500000      0.562500000
F___C000685 F       0.812500000      0.312500000      0.812500000
F___C000686 F       0.937500000      0.437500000      0.812500000
F___C000687 F       0.937500000      0.312500000      0.937500000
F___C000688 F       0.812500000      0.312500000      0.937500000
F___C000689 F       0.937500000      0.437500000      0.937500000
F___C000690 F       0.812500000      0.437500000      0.937500000
F___C000691 F       0.937500000      0.312500000      0.812500000
F___C000692 F       0.812500000      0.437500000      0.812500000
F___C000693 F       0.812500000      0.562500000      0.062500000
F___C000694 F       0.937500000      0.687500000      0.062500000
F___C000695 F       0.937500000      0.562500000      0.187500000
F___C000696 F       0.812500000      0.562500000      0.187500000
F___C000697 F       0.937500000      0.687500000      0.187500000
F___C000698 F       0.812500000      0.687500000      0.187500000
F___C000699 F       0.937500000      0.562500000      0.062500000
F___C000700 F       0.812500000      0.687500000      0.062500000
F___C000701 F       0.812500000      0.562500000      0.312500000
F___C000702 F       0.937500000      0.687500000      0.312500000
F___C000703 F       0.937500000      0.562500000      0.437500000
F___C000704 F       0.812500000      0.562500000      0.437500000
F___C000705 F       0.937500000      0.687500000      0.437500000
F___C000706 F       0.812500000      0.687500000      0.437500000
F___C000707 F       0.937500000      0.562500000      0.312500000
F___C000708 F       0.812500000      0.687500000      0.312500000
F___C000709 F       0.812500000      0.562500000      0.562500000
F___C000710 F       0.937500000      0.687500000      0.562500000
F___C000711 F       0.937500000      0.562500000      0.687500000
F___C000712 F       0.812500000      0.562500000      0.687500000
F___C000713 F       0.937500000      0.687500000      0.687500000
F___C000714 F       0.812500000      0.687500000      0.687500000
F___C000715 F       0.937500000      0.562500000      0.562500000
F___C000716 F       0.812500000      0.687500000      0.562500000
F___C000717 F       0.812500000      0.562500000      0.812500000
F___C000718 F       0.937500000      0.687500000      0.812500000
F___C000719 F       0.937500000      0.562500000      0.937500000
F___C000720 F       0.812500000      0.562500000      0.937500000
F___C000721 F       0.937500000      0.687500000      0.937500000
F___C000722 F       0.812500000      0.687500000      0.937500000
F___C000723 F       0.937500000      0.562500000      0.812500000
F___C000724 F       0.812500000      0.687500000      0.812500000
F___C000725 F       0.812500000      0.812500000      0.062500000
F___C000726 F       0.937500000      0.937500000      0.062500000
F___C000727 F       0.937500000      0.812500000      0.187500000
F___C000728 F       0.812500000      0.812500000      0.187500000
F___C000729 F       0.937500000      0.937500000      0.187500000
F___C000730 F       0.812500000      0.937500000      0.187500000
F___C000731 F       0.937500000      0.812500000      0.062500000
F___C000732 F       0.812500000      0.937500000      0.062500000
F___C000733 F       0.812500000      0.812500000      0.312500000
F___C000734 F       0.937500000      0.937500000      0.312500000
F___C000735 F       0.937500000      0.812500000      0.437500000
F___C000736 F       0.812500000      0.812500000      0.437500000
F___C000737 F       0.937500000      0.937500000      0.437500000
F___C000738 F       0.812500000      0.937500000      0.437500000
F___C000739 F       0.937500000      0.812500000      0.312500000
F___C000740 F       0.812500000      0.937500000      0.312500000
F___C000741 F       0.812500000      0.812500000      0.562500000
F___C000742 F       0.937500000      0.937500000      0.562500000
F___C000743 F       0.937500000      0.812500000      0.687500000
F___C000744 F       0.812500000      0.812500000      0.687500000
F___C000745 F       0.937500000      0.937500000      0.687500000
F___C000746 F       0.812500000      0.937500000      0.687500000
F___C000747 F       0.937500000      0.812500000      0.562500000
F___C000748 F       0.812500000      0.937500000      0.562500000
F___C000749 F       0.812500000      0.812500000      0.812500000
F___C000750 F       0.937500000      0.937500000      0.812500000
F___C000751 F       0.937500000      0.812500000      0.937500000
F___C000752 F       0.812500000      0.812500000      0.937500000
F___C000753 F       0.937500000      0.937500000      0.937500000
F___C000754 F       0.812500000      0.937500000      0.937500000
F___C000755 F       0.937500000      0.812500000      0.812500000
F___C000756 F       0.812500000      0.937500000      0.812500000
